ipss.plugin.3phase/testData/feeder/DistOPFGridappsdDss/test_line_unbal_load/main-InterPSS.dss
! Derived from GRIDAPPSD/distopf src/distopf/cases/dss/test_line_unbal_load/main.dss
! Imported source snapshot: ce39973

New Circuit.test_line_unbal_load phases=3
~ basekv=4.16 pu=1.000 bus1=1

New Linecode.test nphases=3 BaseFreq=60
~ rmatrix=(0.3 | 0.1 0.3 | 0.1 0.1 0.3)
~ xmatrix=(1.0 | 0.5 1.0 | 0.5 0.5 1.0)
~ units=mi

New Line.12 Phases=3 Bus1=1.1.2.3 Bus2=2.1.2.3 LineCode=test Length=2000 units=ft
New Line.23 Phases=3 Bus1=2.1.2.3 Bus2=3.1.2.3 LineCode=test Length=2000 units=ft

New Load.3a Bus1=3.1 Phases=1 Conn=Wye Model=1 kV=2.40177 kW=1230.2 kvar=604.6
New Load.3b Bus1=3.2 Phases=1 Conn=Wye Model=1 kV=2.40177 kW=975.9 kvar=346.5
New Load.3c Bus1=3.3 Phases=1 Conn=Wye Model=1 kV=2.40177 kW=1300.0 kvar=589.2
